@<TRIPOS>MOLECULE
ligand_1_C3H8_modified.pdb
 11 10 0 0 0
SMALL
GASTEIGER

@<TRIPOS>ATOM
      1  C4        59.6300   50.3700   38.1100 C.3     1  FR11       -0.0655
      2  C13       58.0700   49.8800   36.2800 C.3     1  FR11       -0.0655
      3  C14       59.3600   49.5000   36.9400 C.3     1  FR11       -0.0588
      4  H1        59.4540   49.8040   39.0360 H       1  FR11        0.0230
      5  H2        60.6760   50.7100   38.0810 H       1  FR11        0.0230
      6  H3        58.9600   51.2420   38.0810 H       1  FR11        0.0230
      7  H4        57.3160   50.1020   37.0490 H       1  FR11        0.0230
      8  H5        58.2270   50.7700   35.6530 H       1  FR11        0.0230
      9  H6        57.7200   49.0470   35.6530 H       1  FR11        0.0230
     10  H7        60.1810   49.6060   36.2150 H       1  FR11        0.0260
     11  H8        59.2850   48.4580   37.2850 H       1  FR11        0.0260
@<TRIPOS>BOND
     1     1     3    1
     2     1     4    1
     3     1     5    1
     4     1     6    1
     5     2     3    1
     6     2     7    1
     7     2     8    1
     8     2     9    1
     9     3    10    1
    10     3    11    1
