@<TRIPOS>MOLECULE
ligand_1_C3H8_modified.pdb
   11    10     1     0     0
SMALL
bcc


@<TRIPOS>ATOM
      1 C4          59.6300    50.3700    38.1100 c3         1 FR1      -0.093100
      2 C13         58.0700    49.8800    36.2800 c3         1 FR1      -0.093100
      3 C14         59.3600    49.5000    36.9400 c3         1 FR1      -0.081400
      4 H1          59.4540    49.8040    39.0360 hc         1 FR1       0.032367
      5 H2          60.6760    50.7100    38.0810 hc         1 FR1       0.032367
      6 H3          58.9600    51.2420    38.0810 hc         1 FR1       0.032367
      7 H4          57.3160    50.1020    37.0490 hc         1 FR1       0.032367
      8 H5          58.2270    50.7700    35.6530 hc         1 FR1       0.032367
      9 H6          57.7200    49.0470    35.6530 hc         1 FR1       0.032367
     10 H7          60.1810    49.6060    36.2150 hc         1 FR1       0.036700
     11 H8          59.2850    48.4580    37.2850 hc         1 FR1       0.036700
@<TRIPOS>BOND
     1     1     3 1   
     2     1     4 1   
     3     1     5 1   
     4     1     6 1   
     5     2     3 1   
     6     2     7 1   
     7     2     8 1   
     8     2     9 1   
     9     3    10 1   
    10     3    11 1   
@<TRIPOS>SUBSTRUCTURE
     1 FR1         1 TEMP              0 ****  ****    0 ROOT
