@<TRIPOS>MOLECULE
DB00176.pdb
 43 43 0 0 0
SMALL
GASTEIGER

@<TRIPOS>ATOM
      1  C          2.7650   -2.9760   -2.1650 C.3     1  UNL1        0.0364
      2  O          3.6060   -2.0590   -1.4700 O.3     1  UNL1       -0.3830
      3  C          4.0600   -1.0330   -2.3480 C.3     1  UNL1        0.0473
      4  C          4.9480   -0.0500   -1.5890 C.3     1  UNL1       -0.0291
      5  C          5.4350    1.0410   -2.5410 C.3     1  UNL1       -0.0454
      6  C          6.2290    2.1420   -1.8340 C.3     1  UNL1       -0.0066
      7  C          6.7920    3.1620   -2.8390 C.2     1  UNL1        0.0872
      8  N          6.0200    3.9830   -3.5000 N.2     1  UNL1       -0.0890
      9  O          4.6760    3.8270   -3.1420 O.2     1  UNL1       -0.3923
     10  C          3.8520    4.6400   -3.9790 C.3     1  UNL1        0.1301
     11  C          2.3990    4.3020   -3.6350 C.3     1  UNL1        0.0302
     12  N          1.4190    5.1290   -4.3390 N.3     1  UNL1       -0.3270
     13  C          8.2810    3.2480   -3.0810 C.ar    1  UNL1       -0.0006
     14  C          9.2160    2.4520   -2.4030 C.ar    1  UNL1       -0.0522
     15  C         10.5900    2.6010   -2.6400 C.ar    1  UNL1       -0.0495
     16  C         11.0640    3.5400   -3.5650 C.ar    1  UNL1        0.0548
     17  C         10.1320    4.3340   -4.2470 C.ar    1  UNL1       -0.0495
     18  C          8.7620    4.1880   -4.0040 C.ar    1  UNL1       -0.0522
     19  C         12.5440    3.6970   -3.8270 C.3     1  UNL1        0.4174
     20  F         13.3200    2.8650   -3.0770 F       1  UNL1       -0.1659
     21  F         12.8710    3.4420   -5.1240 F       1  UNL1       -0.1659
     22  F         12.9910    4.9570   -3.5680 F       1  UNL1       -0.1659
     23  H          2.4300   -3.7450   -1.4640 H       1  UNL1        0.0523
     24  H          3.3170   -3.4590   -2.9780 H       1  UNL1        0.0523
     25  H          1.8860   -2.4610   -2.5660 H       1  UNL1        0.0523
     26  H          3.1930   -0.5040   -2.7610 H       1  UNL1        0.0560
     27  H          4.6250   -1.4850   -3.1710 H       1  UNL1        0.0560
     28  H          5.7970   -0.5810   -1.1420 H       1  UNL1        0.0287
     29  H          4.3850    0.3840   -0.7530 H       1  UNL1        0.0287
     30  H          4.5600    1.4700   -3.0410 H       1  UNL1        0.0270
     31  H          6.0480    0.5930   -3.3320 H       1  UNL1        0.0270
     32  H          7.0110    1.6850   -1.2300 H       1  UNL1        0.0329
     33  H          5.5910    2.6790   -1.1230 H       1  UNL1        0.0329
     34  H          4.0580    4.4270   -5.0340 H       1  UNL1        0.0736
     35  H          4.0670    5.6940   -3.7730 H       1  UNL1        0.0736
     36  H          2.2470    4.4010   -2.5540 H       1  UNL1        0.0456
     37  H          2.2120    3.2470   -3.8690 H       1  UNL1        0.0456
     38  H          1.5320    6.1020   -4.0550 H       1  UNL1        0.1183
     39  H          0.4830    4.8570   -4.0370 H       1  UNL1        0.1183
     40  H          8.9230    1.7020   -1.6770 H       1  UNL1        0.0624
     41  H         11.2900    1.9720   -2.0900 H       1  UNL1        0.0623
     42  H         10.4710    5.0750   -4.9700 H       1  UNL1        0.0623
     43  H          8.0740    4.8260   -4.5500 H       1  UNL1        0.0624
@<TRIPOS>BOND
     1     1     2    1
     2     1    23    1
     3     1    24    1
     4     1    25    1
     5     2     3    1
     6     3     4    1
     7     3    26    1
     8     3    27    1
     9     4     5    1
    10     4    28    1
    11     4    29    1
    12     5     6    1
    13     5    30    1
    14     5    31    1
    15     6     7    1
    16     6    32    1
    17     6    33    1
    18     7     8    2
    19     7    13    1
    20     8     9    1
    21     9    10    1
    22    10    11    1
    23    10    34    1
    24    10    35    1
    25    11    12    1
    26    11    36    1
    27    11    37    1
    28    12    38    1
    29    12    39    1
    30    13    14   ar
    31    13    18   ar
    32    14    15   ar
    33    14    40    1
    34    15    16   ar
    35    15    41    1
    36    16    17   ar
    37    16    19    1
    38    17    18   ar
    39    17    42    1
    40    18    43    1
    41    19    20    1
    42    19    21    1
    43    19    22    1
