@<TRIPOS>MOLECULE
*****
 29 32 0 0 0
SMALL
GASTEIGER

@<TRIPOS>ATOM
      1 O           1.0604   -0.3261   -0.1293 O.2     1  UNL1       -0.2245
      2 C           2.1984   -0.7208   -0.3490 C.2     1  UNL1        0.4218
      3 O           2.8423   -0.6291   -1.5392 O.3     1  UNL1       -0.4285
      4 N           2.9679   -1.3925    0.5648 N.am    1  UNL1       -0.1638
      5 C           2.0133   -0.3253   -2.6758 C.3     1  UNL1        0.2368
      6 C           2.4254   -1.7698    1.8510 C.3     1  UNL1        0.1450
      7 C           2.2485    1.0478   -3.2649 C.ar    1  UNL1        0.0213
      8 C           3.3820   -2.5867    2.6918 C.ar    1  UNL1       -0.0004
      9 C           3.2722    1.2663   -4.1993 C.ar    1  UNL1       -0.0007
     10 C           1.4048    2.1203   -2.9355 C.ar    1  UNL1       -0.0007
     11 C           4.3121   -1.9567    3.5288 C.ar    1  UNL1       -0.0025
     12 C           3.3373   -3.9901    2.6861 C.ar    1  UNL1       -0.0025
     13 C           3.4460    2.5231   -4.7891 C.ar    1  UNL1       -0.0002
     14 C           1.5803    3.3760   -3.5262 C.ar    1  UNL1       -0.0002
     15 C           5.1841   -2.7093    4.3281 C.ar    1  UNL1        0.0028
     16 C           4.2064   -4.7473    3.4915 C.ar    1  UNL1        0.0028
     17 C           2.6012    3.5785   -4.4526 C.ar    1  UNL1       -0.0000
     18 C           5.1513   -4.1153    4.3016 C.ar    1  UNL1        0.0359
     19 C           6.0242   -4.9200    5.2052 C.ar    1  UNL1        0.1654
     20 N           5.6664   -6.0968    5.6277 N.ar    1  UNL1       -0.2263
     21 N           7.2170   -4.3384    5.5884 N.ar    1  UNL1       -0.1887
     22 C           6.4345   -6.6970    6.6486 C.ar    1  UNL1        0.0876
     23 C           8.0858   -4.8959    6.4911 C.ar    1  UNL1        0.2820
     24 C           5.9641   -7.8623    7.2592 C.ar    1  UNL1        0.0193
     25 C           7.5757   -6.0921    7.1806 C.ar    1  UNL1        0.0756
     26 O           9.1913   -4.4311    6.7151 O.2     1  UNL1       -0.2651
     27 C           6.5461   -8.3284    8.4440 C.ar    1  UNL1        0.0015
     28 C           8.1736   -6.5493    8.3587 C.ar    1  UNL1        0.0063
     29 C           7.6265   -7.6503    9.0132 C.ar    1  UNL1        0.0003
@<TRIPOS>BOND
     1     1     2    2
     2     2     4   am
     3     4     6    1
     4     6     8    1
     5     8    11   ar
     6    11    15   ar
     7    15    18   ar
     8    18    16   ar
     9    16    12   ar
    10     8    12   ar
    11    18    19    1
    12    19    20   ar
    13    20    22   ar
    14    22    24   ar
    15    24    27   ar
    16    27    29   ar
    17    29    28   ar
    18    28    25   ar
    19    22    25   ar
    20    25    23   ar
    21    23    26    2
    22    23    21   ar
    23    19    21   ar
    24     2     3    1
    25     3     5    1
    26     5     7    1
    27     7     9   ar
    28     9    13   ar
    29    13    17   ar
    30    17    14   ar
    31    14    10   ar
    32     7    10   ar
