@<TRIPOS>MOLECULE
RJN.pdb
 29 32 0 0 0
SMALL
GASTEIGER

@<TRIPOS>ATOM
      1 OAA       -38.7000  -11.2120    4.1040 O.2   2117  RJN21172117   -0.2245
      2 CAB       -37.8020  -11.3830    4.9350 C.2   2117  RJN21172117    0.4218
      3 OAV       -36.5890  -12.0030    4.6290 O.3   2117  RJN21172117   -0.4285
      4 NAC       -37.9910  -10.9420    6.1820 N.am  2117  RJN21172117   -0.1638
      5 CAW       -36.3300  -12.4820    3.2610 C.3   2117  RJN21172117    0.2368
      6 CAD       -39.2280  -10.2800    6.6840 C.3   2117  RJN21172117    0.1450
      7 CAX       -35.1080  -11.9590    2.8090 C.ar  2117  RJN21172117    0.0213
      8 CAE       -39.2070  -10.4800    8.0820 C.ar  2117  RJN21172117   -0.0004
      9 CAY       -33.9100  -12.6820    2.8930 C.ar  2117  RJN21172117   -0.0007
     10 CBC       -35.0790  -10.6850    2.2250 C.ar  2117  RJN21172117   -0.0007
     11 CAF       -38.5120   -9.6170    8.9480 C.ar  2117  RJN21172117   -0.0025
     12 CAJ       -39.8330  -11.6010    8.6230 C.ar  2117  RJN21172117   -0.0025
     13 CAZ       -32.7150  -12.1270    2.4240 C.ar  2117  RJN21172117   -0.0002
     14 CBB       -33.8870  -10.1310    1.7580 C.ar  2117  RJN21172117   -0.0002
     15 CAG       -38.4790   -9.8660   10.3180 C.ar  2117  RJN21172117    0.0028
     16 CAI       -39.8070  -11.8440    9.9950 C.ar  2117  RJN21172117    0.0028
     17 CBA       -32.7000  -10.8510    1.8600 C.ar  2117  RJN21172117   -0.0000
     18 CAH       -39.1270  -10.9920   10.8700 C.ar  2117  RJN21172117    0.0359
     19 CAK       -39.1360  -11.2970   12.2540 C.ar  2117  RJN21172117    0.1654
     20 NAU       -38.3440  -10.6080   13.2230 N.ar  2117  RJN21172117   -0.1887
     21 NAL       -39.9350  -12.3020   12.6710 N.ar  2117  RJN21172117   -0.2263
     22 CAS       -38.3910  -10.9610   14.5720 C.ar  2117  RJN21172117    0.2820
     23 CAM       -39.9950  -12.6510   13.9750 C.ar  2117  RJN21172117    0.0876
     24 OAT       -37.7090  -10.3710   15.3840 O.2   2117  RJN21172117   -0.2651
     25 CAN       -39.2200  -11.9840   14.9560 C.ar  2117  RJN21172117    0.0756
     26 CAR       -40.8710  -13.6940   14.3460 C.ar  2117  RJN21172117    0.0193
     27 CAO       -39.3270  -12.3560   16.2810 C.ar  2117  RJN21172117    0.0063
     28 CAQ       -40.9770  -14.0720   15.6870 C.ar  2117  RJN21172117    0.0015
     29 CAP       -40.1990  -13.3990   16.6410 C.ar  2117  RJN21172117    0.0003
@<TRIPOS>BOND
     1     2     4   am
     2     2     1    2
     3     2     3    1
     4     6     8    1
     5     6     4    1
     6     8    11   ar
     7     8    12   ar
     8    11    15   ar
     9    15    18   ar
    10    18    16   ar
    11    18    19    1
    12    16    12   ar
    13    19    21   ar
    14    19    20   ar
    15    23    25   ar
    16    23    26   ar
    17    23    21   ar
    18    25    27   ar
    19    25    22   ar
    20    27    29   ar
    21    29    28   ar
    22    28    26   ar
    23    22    20   ar
    24    22    24    2
    25     5     7    1
    26     5     3    1
    27     7     9   ar
    28     7    10   ar
    29     9    13   ar
    30    13    17   ar
    31    17    14   ar
    32    14    10   ar
