@<TRIPOS>MOLECULE
*****
 48 51 0 0 0
SMALL
GASTEIGER

@<TRIPOS>ATOM
      1 O           0.9997   -0.4524   -0.1520 O.2     1  UNL1       -0.2265
      2 C           2.1883   -0.7121   -0.2631 C.2     1  UNL1        0.4008
      3 N           2.9727   -1.1665    0.7614 N.am    1  UNL1       -0.2770
      4 C           2.3906   -1.4723    2.0473 C.3     1  UNL1        0.0400
      5 C           3.3747   -2.1025    2.9990 C.ar    1  UNL1       -0.0302
      6 C           4.2169   -1.3020    3.7806 C.ar    1  UNL1       -0.0564
      7 C           5.1037   -1.8811    4.6947 C.ar    1  UNL1       -0.0508
      8 C           5.1767   -3.2744    4.8297 C.ar    1  UNL1        0.0174
      9 C           4.3300   -4.0801    4.0642 C.ar    1  UNL1       -0.0508
     10 C           3.4433   -3.4974    3.1476 C.ar    1  UNL1       -0.0564
     11 C           6.0463   -3.8851    5.8772 C.ar    1  UNL1        0.1414
     12 N           5.7147   -4.9946    6.4615 N.ar    1  UNL1       -0.2290
     13 C           6.4440   -5.3770    7.6040 C.ar    1  UNL1        0.0785
     14 C           5.9800   -6.4495    8.3677 C.ar    1  UNL1       -0.0355
     15 C           6.5076   -6.6937    9.6397 C.ar    1  UNL1       -0.0597
     16 C           7.5241   -5.8825   10.1479 C.ar    1  UNL1       -0.0609
     17 C           8.0589   -4.8652    9.3603 C.ar    1  UNL1       -0.0474
     18 C           7.5191   -4.6296    8.0928 C.ar    1  UNL1        0.0647
     19 C           8.0093   -3.5266    7.2545 C.ar    1  UNL1        0.2595
     20 O           9.0581   -2.9368    7.4835 O.2     1  UNL1       -0.2671
     21 N           7.1857   -3.1829    6.2136 N.ar    1  UNL1       -0.3064
     22 O           2.9010   -0.6671   -1.4143 O.3     1  UNL1       -0.4456
     23 C           2.1179   -0.5602   -2.6119 C.3     1  UNL1        0.1191
     24 C           2.2901    0.7622   -3.3217 C.ar    1  UNL1       -0.0103
     25 C           3.3474    0.9631   -4.2215 C.ar    1  UNL1       -0.0554
     26 C           3.4471    2.1533   -4.9474 C.ar    1  UNL1       -0.0614
     27 C           2.5001    3.1610   -4.7727 C.ar    1  UNL1       -0.0617
     28 C           1.4578    2.9824   -3.8659 C.ar    1  UNL1       -0.0614
     29 C           1.3561    1.7919   -3.1400 C.ar    1  UNL1       -0.0554
     30 H           3.9085   -1.4667    0.5308 H       1  UNL1        0.1523
     31 H           1.5301   -2.1309    1.8954 H       1  UNL1        0.0513
     32 H           1.9956   -0.5398    2.4712 H       1  UNL1        0.0513
     33 H           4.1609   -0.2169    3.7096 H       1  UNL1        0.0621
     34 H           5.6856   -1.2201    5.3316 H       1  UNL1        0.0625
     35 H           4.3382   -5.1609    4.1926 H       1  UNL1        0.0625
     36 H           2.7817   -4.1430    2.5724 H       1  UNL1        0.0621
     37 H           5.1652   -7.0618    7.9915 H       1  UNL1        0.0639
     38 H           6.0969   -7.4953   10.2489 H       1  UNL1        0.0618
     39 H           7.8893   -6.0359   11.1600 H       1  UNL1        0.0618
     40 H           8.8524   -4.2305    9.7456 H       1  UNL1        0.0626
     41 H           7.5018   -2.4022    5.6608 H       1  UNL1        0.1704
     42 H           1.0524   -0.7650   -2.4482 H       1  UNL1        0.0749
     43 H           2.4590   -1.3616   -3.2814 H       1  UNL1        0.0749
     44 H           4.0865    0.1817   -4.3833 H       1  UNL1        0.0621
     45 H           4.2581    2.2912   -5.6579 H       1  UNL1        0.0618
     46 H           2.5726    4.0827   -5.3444 H       1  UNL1        0.0618
     47 H           0.7162    3.7656   -3.7305 H       1  UNL1        0.0618
     48 H           0.5273    1.6635   -2.4456 H       1  UNL1        0.0621
@<TRIPOS>BOND
     1     1     2    2
     2     2     3   am
     3     3     4    1
     4     4     5    1
     5     5     6   ar
     6     6     7   ar
     7     7     8   ar
     8     8     9   ar
     9     9    10   ar
    10     5    10   ar
    11     8    11    1
    12    11    12   ar
    13    12    13   ar
    14    13    14   ar
    15    14    15   ar
    16    15    16   ar
    17    16    17   ar
    18    17    18   ar
    19    13    18   ar
    20    18    19   ar
    21    19    20    2
    22    19    21   ar
    23    11    21   ar
    24     2    22    1
    25    22    23    1
    26    23    24    1
    27    24    25   ar
    28    25    26   ar
    29    26    27   ar
    30    27    28   ar
    31    28    29   ar
    32    24    29   ar
    33     3    30    1
    34     4    31    1
    35     4    32    1
    36     6    33    1
    37     7    34    1
    38     9    35    1
    39    10    36    1
    40    14    37    1
    41    15    38    1
    42    16    39    1
    43    17    40    1
    44    21    41    1
    45    23    42    1
    46    23    43    1
    47    25    44    1
    48    26    45    1
    49    27    46    1
    50    28    47    1
    51    29    48    1
