@<TRIPOS>MOLECULE
*****
 29 32 0 0 0
SMALL
GASTEIGER

@<TRIPOS>ATOM
      1 O           0.2966   -0.4377   -0.6697 O.2     1  UNL1       -0.2245
      2 C           0.4027   -0.8020   -1.8355 C.2     1  UNL1        0.4218
      3 N           1.3942   -1.6140   -2.3004 N.am    1  UNL1       -0.1638
      4 C           2.3976   -2.1698   -1.4206 C.3     1  UNL1        0.1450
      5 C           3.2988   -3.1605   -2.1206 C.ar    1  UNL1       -0.0004
      6 C           4.4691   -2.7254   -2.7543 C.ar    1  UNL1       -0.0025
      7 C           5.3017   -3.6328   -3.4217 C.ar    1  UNL1        0.0028
      8 C           4.9730   -4.9950   -3.4841 C.ar    1  UNL1        0.0359
      9 C           3.8269   -5.4420   -2.8199 C.ar    1  UNL1        0.0028
     10 C           2.9921   -4.5304   -2.1530 C.ar    1  UNL1       -0.0025
     11 C           5.8925   -5.9724   -4.1461 C.ar    1  UNL1        0.1654
     12 N           5.9563   -7.2095   -3.7628 N.ar    1  UNL1       -0.2263
     13 C           7.0238   -7.9945   -4.2500 C.ar    1  UNL1        0.0876
     14 C           7.2561   -9.2483   -3.6816 C.ar    1  UNL1        0.0193
     15 C           8.4742   -9.9069   -3.8929 C.ar    1  UNL1        0.0015
     16 C           9.4528   -9.3339   -4.7061 C.ar    1  UNL1        0.0003
     17 C           9.1851   -8.1429   -5.3763 C.ar    1  UNL1        0.0063
     18 C           7.9698   -7.4921   -5.1478 C.ar    1  UNL1        0.0756
     19 C           7.6851   -6.1934   -5.7644 C.ar    1  UNL1        0.2820
     20 O           8.2995   -5.7712   -6.7335 O.2     1  UNL1       -0.2651
     21 N           6.6917   -5.4716   -5.1552 N.ar    1  UNL1       -0.1887
     22 O          -0.4643   -0.5021   -2.8337 O.3     1  UNL1       -0.4285
     23 C          -1.7316    0.0483   -2.4243 C.3     1  UNL1        0.2368
     24 C          -1.9216    1.4824   -2.8623 C.ar    1  UNL1        0.0213
     25 C          -2.9178    1.8238   -3.7910 C.ar    1  UNL1       -0.0007
     26 C          -3.1449    3.1602   -4.1328 C.ar    1  UNL1       -0.0002
     27 C          -2.3840    4.1703   -3.5545 C.ar    1  UNL1       -0.0000
     28 C          -1.3872    3.8409   -2.6300 C.ar    1  UNL1       -0.0002
     29 C          -1.1610    2.5094   -2.2861 C.ar    1  UNL1       -0.0007
@<TRIPOS>BOND
     1     1     2    2
     2     2     3   am
     3     3     4    1
     4     4     5    1
     5     5     6   ar
     6     6     7   ar
     7     7     8   ar
     8     8     9   ar
     9     9    10   ar
    10     5    10   ar
    11     8    11    1
    12    11    12   ar
    13    12    13   ar
    14    13    14   ar
    15    14    15   ar
    16    15    16   ar
    17    16    17   ar
    18    17    18   ar
    19    13    18   ar
    20    18    19   ar
    21    19    20    2
    22    19    21   ar
    23    11    21   ar
    24     2    22    1
    25    22    23    1
    26    23    24    1
    27    24    25   ar
    28    25    26   ar
    29    26    27   ar
    30    27    28   ar
    31    28    29   ar
    32    24    29   ar
