@<TRIPOS>MOLECULE
RJN
 48 51 0 0 0
SMALL
GASTEIGER

@<TRIPOS>ATOM
      1  CAB      -37.8020  -11.3830    4.9350 C.2      1  RJN         0.4008
      2  CAD      -39.2280  -10.2800    6.6840 C.3      1  RJN         0.0400
      3  CAE      -39.2070  -10.4800    8.0820 C.ar     1  RJN        -0.0302
      4  CAF      -38.5120   -9.6170    8.9480 C.ar     1  RJN        -0.0564
      5  CAG      -38.4790   -9.8660   10.3180 C.ar     1  RJN        -0.0508
      6  CAH      -39.1270  -10.9920   10.8700 C.ar     1  RJN         0.0174
      7  CAI      -39.8070  -11.8440    9.9950 C.ar     1  RJN        -0.0508
      8  CAJ      -39.8330  -11.6010    8.6230 C.ar     1  RJN        -0.0564
      9  CAK      -39.1360  -11.2970   12.2540 C.ar     1  RJN         0.1414
     10  CAM      -39.9950  -12.6510   13.9750 C.ar     1  RJN         0.0785
     11  CAN      -39.2200  -11.9840   14.9560 C.ar     1  RJN         0.0647
     12  CAO      -39.3270  -12.3560   16.2810 C.ar     1  RJN        -0.0474
     13  CAP      -40.1990  -13.3990   16.6410 C.ar     1  RJN        -0.0609
     14  CAQ      -40.9770  -14.0720   15.6870 C.ar     1  RJN        -0.0597
     15  CAR      -40.8710  -13.6940   14.3460 C.ar     1  RJN        -0.0355
     16  CAS      -38.3910  -10.9610   14.5720 C.ar     1  RJN         0.2595
     17  CAW      -36.3300  -12.4820    3.2610 C.3      1  RJN         0.1191
     18  CAX      -35.1080  -11.9590    2.8090 C.ar     1  RJN        -0.0103
     19  CAY      -33.9100  -12.6820    2.8930 C.ar     1  RJN        -0.0554
     20  CAZ      -32.7150  -12.1270    2.4240 C.ar     1  RJN        -0.0614
     21  NAC      -37.9910  -10.9420    6.1820 N.am     1  RJN        -0.2770
     22  NAL      -39.9350  -12.3020   12.6710 N.ar     1  RJN        -0.2290
     23  NAU      -38.3440  -10.6080   13.2230 N.ar     1  RJN        -0.3064
     24  OAA      -38.7000  -11.2120    4.1040 O.2      1  RJN        -0.2265
     25  OAT      -37.7090  -10.3710   15.3840 O.2      1  RJN        -0.2671
     26  OAV      -36.5890  -12.0030    4.6290 O.3      1  RJN        -0.4456
     27  CBA      -32.7000  -10.8510    1.8600 C.ar     1  RJN        -0.0617
     28  CBB      -33.8870  -10.1310    1.7580 C.ar     1  RJN        -0.0614
     29  CBC      -35.0790  -10.6850    2.2250 C.ar     1  RJN        -0.0554
     30 H         -39.2158   -9.2353    6.4532 H        1  RJN         0.0513
     31 H         -40.1110  -10.6826    6.2333 H        1  RJN         0.0513
     32 H         -38.0227   -8.7928    8.5655 H        1  RJN         0.0621
     33 H         -37.9724   -9.2165   10.9398 H        1  RJN         0.0625
     34 H         -40.2993  -12.6688   10.3723 H        1  RJN         0.0625
     35 H         -40.3229  -12.2608    7.9988 H        1  RJN         0.0621
     36 H         -38.7706  -11.8718   17.0028 H        1  RJN         0.0626
     37 H         -40.2684  -13.6765   17.6326 H        1  RJN         0.0618
     38 H         -41.6154  -14.8317   15.9703 H        1  RJN         0.0618
     39 H         -41.4326  -14.1769   13.6274 H        1  RJN         0.0639
     40 H         -36.2835  -13.5510    3.2596 H        1  RJN         0.0749
     41 H         -37.1187  -12.1601    2.6135 H        1  RJN         0.0749
     42 H         -33.9098  -13.6290    3.3032 H        1  RJN         0.0621
     43 H         -31.8375  -12.6655    2.4957 H        1  RJN         0.0618
     44 H         -37.2526  -11.0645    6.8215 H        1  RJN         0.1523
     45 H         -37.7561   -9.8729   12.9345 H        1  RJN         0.1704
     46 H         -31.8146  -10.4436    1.5206 H        1  RJN         0.0618
     47 H         -33.8851   -9.1886    1.3374 H        1  RJN         0.0618
     48 H         -35.9555  -10.1471    2.1390 H        1  RJN         0.0621
@<TRIPOS>BOND
     1     1    21   am
     2     1    24    2
     3     1    26    1
     4     2     3    1
     5     2    21    1
     6     2    30    1
     7     2    31    1
     8     3     4   ar
     9     3     8   ar
    10     4     5   ar
    11     4    32    1
    12     5     6   ar
    13     5    33    1
    14     6     7   ar
    15     6     9    1
    16     7     8   ar
    17     7    34    1
    18     8    35    1
    19     9    22   ar
    20     9    23   ar
    21    10    11   ar
    22    10    15   ar
    23    10    22   ar
    24    11    12   ar
    25    11    16   ar
    26    12    13   ar
    27    12    36    1
    28    13    14   ar
    29    13    37    1
    30    14    15   ar
    31    14    38    1
    32    15    39    1
    33    16    23   ar
    34    16    25    2
    35    17    18    1
    36    17    26    1
    37    17    40    1
    38    17    41    1
    39    18    19   ar
    40    18    29   ar
    41    19    20   ar
    42    19    42    1
    43    20    27   ar
    44    20    43    1
    45    21    44    1
    46    23    45    1
    47    27    28   ar
    48    27    46    1
    49    28    29   ar
    50    28    47    1
    51    29    48    1
