@<TRIPOS>MOLECULE
*****
 29 32 0 0 0
SMALL
GASTEIGER

@<TRIPOS>ATOM
      1 O           0.2966   -0.4377   -0.6697 O.2     1  UNL11      -0.2245
      2 C           0.4027   -0.8020   -1.8355 C.2     1  UNL11       0.4218
      3 O          -0.4643   -0.5021   -2.8337 O.3     1  UNL11      -0.4285
      4 N           1.3942   -1.6140   -2.3004 N.am    1  UNL11      -0.1638
      5 C          -1.7316    0.0483   -2.4243 C.3     1  UNL11       0.2368
      6 C           2.3976   -2.1698   -1.4206 C.3     1  UNL11       0.1450
      7 C          -1.9216    1.4824   -2.8623 C.ar    1  UNL11       0.0213
      8 C           3.2988   -3.1605   -2.1206 C.ar    1  UNL11      -0.0004
      9 C          -2.9178    1.8238   -3.7910 C.ar    1  UNL11      -0.0007
     10 C          -1.1610    2.5094   -2.2861 C.ar    1  UNL11      -0.0007
     11 C           4.4691   -2.7254   -2.7543 C.ar    1  UNL11      -0.0025
     12 C           2.9921   -4.5304   -2.1530 C.ar    1  UNL11      -0.0025
     13 C          -3.1449    3.1602   -4.1328 C.ar    1  UNL11      -0.0002
     14 C          -1.3872    3.8409   -2.6300 C.ar    1  UNL11      -0.0002
     15 C           5.3017   -3.6328   -3.4217 C.ar    1  UNL11       0.0028
     16 C           3.8269   -5.4420   -2.8199 C.ar    1  UNL11       0.0028
     17 C          -2.3840    4.1703   -3.5545 C.ar    1  UNL11      -0.0000
     18 C           4.9730   -4.9950   -3.4841 C.ar    1  UNL11       0.0359
     19 C           5.8925   -5.9724   -4.1461 C.ar    1  UNL11       0.1654
     20 N           6.6917   -5.4716   -5.1552 N.ar    1  UNL11      -0.1887
     21 N           5.9563   -7.2095   -3.7628 N.ar    1  UNL11      -0.2263
     22 C           7.6851   -6.1934   -5.7644 C.ar    1  UNL11       0.2820
     23 C           7.0238   -7.9945   -4.2500 C.ar    1  UNL11       0.0876
     24 O           8.2995   -5.7712   -6.7335 O.2     1  UNL11      -0.2651
     25 C           7.9698   -7.4921   -5.1478 C.ar    1  UNL11       0.0756
     26 C           7.2561   -9.2483   -3.6816 C.ar    1  UNL11       0.0193
     27 C           9.1851   -8.1429   -5.3763 C.ar    1  UNL11       0.0063
     28 C           8.4742   -9.9069   -3.8929 C.ar    1  UNL11       0.0015
     29 C           9.4528   -9.3339   -4.7061 C.ar    1  UNL11       0.0003
@<TRIPOS>BOND
     1     1     2    2
     2     2     4   am
     3     4     6    1
     4     6     8    1
     5     8    11   ar
     6    11    15   ar
     7    15    18   ar
     8    18    16   ar
     9    16    12   ar
    10     8    12   ar
    11    18    19    1
    12    19    21   ar
    13    21    23   ar
    14    23    26   ar
    15    26    28   ar
    16    28    29   ar
    17    29    27   ar
    18    27    25   ar
    19    23    25   ar
    20    25    22   ar
    21    22    24    2
    22    22    20   ar
    23    19    20   ar
    24     2     3    1
    25     3     5    1
    26     5     7    1
    27     7     9   ar
    28     9    13   ar
    29    13    17   ar
    30    17    14   ar
    31    14    10   ar
    32     7    10   ar
