@<TRIPOS>MOLECULE
RJN.pdb
 29 32 0 0 0
SMALL
GASTEIGER

@<TRIPOS>ATOM
      1  CAB      -37.8020  -11.3830    4.9350 C.2   2117  RJN2117     0.4218
      2  CAD      -39.2280  -10.2800    6.6840 C.3   2117  RJN2117     0.1450
      3  CAE      -39.2070  -10.4800    8.0820 C.ar  2117  RJN2117    -0.0004
      4  CAF      -38.5120   -9.6170    8.9480 C.ar  2117  RJN2117    -0.0025
      5  CAG      -38.4790   -9.8660   10.3180 C.ar  2117  RJN2117     0.0028
      6  CAH      -39.1270  -10.9920   10.8700 C.ar  2117  RJN2117     0.0359
      7  CAI      -39.8070  -11.8440    9.9950 C.ar  2117  RJN2117     0.0028
      8  CAJ      -39.8330  -11.6010    8.6230 C.ar  2117  RJN2117    -0.0025
      9  CAK      -39.1360  -11.2970   12.2540 C.ar  2117  RJN2117     0.1654
     10  CAM      -39.9950  -12.6510   13.9750 C.ar  2117  RJN2117     0.0876
     11  CAN      -39.2200  -11.9840   14.9560 C.ar  2117  RJN2117     0.0756
     12  CAO      -39.3270  -12.3560   16.2810 C.ar  2117  RJN2117     0.0063
     13  CAP      -40.1990  -13.3990   16.6410 C.ar  2117  RJN2117     0.0003
     14  CAQ      -40.9770  -14.0720   15.6870 C.ar  2117  RJN2117     0.0015
     15  CAR      -40.8710  -13.6940   14.3460 C.ar  2117  RJN2117     0.0193
     16  CAS      -38.3910  -10.9610   14.5720 C.ar  2117  RJN2117     0.2820
     17  CAW      -36.3300  -12.4820    3.2610 C.3   2117  RJN2117     0.2368
     18  CAX      -35.1080  -11.9590    2.8090 C.ar  2117  RJN2117     0.0213
     19  CAY      -33.9100  -12.6820    2.8930 C.ar  2117  RJN2117    -0.0007
     20  CAZ      -32.7150  -12.1270    2.4240 C.ar  2117  RJN2117    -0.0002
     21  NAC      -37.9910  -10.9420    6.1820 N.am  2117  RJN2117    -0.1638
     22  NAL      -39.9350  -12.3020   12.6710 N.ar  2117  RJN2117    -0.2263
     23  NAU      -38.3440  -10.6080   13.2230 N.ar  2117  RJN2117    -0.1887
     24  OAA      -38.7000  -11.2120    4.1040 O.2   2117  RJN2117    -0.2245
     25  OAT      -37.7090  -10.3710   15.3840 O.2   2117  RJN2117    -0.2651
     26  OAV      -36.5890  -12.0030    4.6290 O.3   2117  RJN2117    -0.4285
     27  CBA      -32.7000  -10.8510    1.8600 C.ar  2117  RJN2117    -0.0000
     28  CBB      -33.8870  -10.1310    1.7580 C.ar  2117  RJN2117    -0.0002
     29  CBC      -35.0790  -10.6850    2.2250 C.ar  2117  RJN2117    -0.0007
@<TRIPOS>BOND
     1     1    21   am
     2     1    24    2
     3     1    26    1
     4     2     3    1
     5     2    21    1
     6     3     4   ar
     7     3     8   ar
     8     4     5   ar
     9     5     6   ar
    10     6     7   ar
    11     6     9    1
    12     7     8   ar
    13     9    22   ar
    14     9    23   ar
    15    10    11   ar
    16    10    15   ar
    17    10    22   ar
    18    11    12   ar
    19    11    16   ar
    20    12    13   ar
    21    13    14   ar
    22    14    15   ar
    23    16    23   ar
    24    16    25    2
    25    17    18    1
    26    17    26    1
    27    18    19   ar
    28    18    29   ar
    29    19    20   ar
    30    20    27   ar
    31    27    28   ar
    32    28    29   ar
