# created with PyMOL 2.5.0
@<TRIPOS>MOLECULE
obj01
29 32 1                 
SMALL
USER_CHARGES
@<TRIPOS>ATOM
1	 CAB	-38.974	-11.360	4.538	C.2	1	RJN2116	0.000	
2	 CAD	-40.066	-10.031	6.401	C.3	1	RJN2116	0.000	
3	 CAE	-40.040	-10.272	7.800	C.2	1	RJN2116	0.000	
4	 CAF	-39.252	-9.490	8.661	C.2	1	RJN2116	0.000	
5	 CAG	-39.211	-9.773	10.021	C.2	1	RJN2116	0.000	
6	 CAH	-39.930	-10.854	10.579	C.2	1	RJN2116	0.000	
7	 CAI	-40.727	-11.632	9.727	C.2	1	RJN2116	0.000	
8	 CAJ	-40.765	-11.354	8.352	C.2	1	RJN2116	0.000	
9	 CAK	-39.942	-11.123	11.973	C.2	1	RJN2116	0.000	
10	 CAM	-40.951	-12.289	13.755	C.2	1	RJN2116	0.000	
11	 CAN	-40.133	-11.652	14.718	C.2	1	RJN2116	0.000	
12	 CAO	-40.277	-11.961	16.062	C.2	1	RJN2116	0.000	
13	 CAP	-41.242	-12.912	16.445	C.2	1	RJN2116	0.000	
14	 CAQ	-42.060	-13.550	15.504	C.2	1	RJN2116	0.000	
15	 CAR	-41.911	-13.235	14.147	C.2	1	RJN2116	0.000	
16	 CAS	-39.213	-10.730	14.288	C.2	1	RJN2116	0.000	
17	 CAW	-37.656	-12.447	2.748	C.3	1	RJN2116	0.000	
18	 CAX	-36.430	-11.866	2.426	C.2	1	RJN2116	0.000	
19	 CAY	-36.379	-10.623	1.775	C.2	1	RJN2116	0.000	
20	 CAZ	-35.149	-10.038	1.447	C.2	1	RJN2116	0.000	
21	 NAC	-39.009	-10.902	5.808	N.pl3	1	RJN2116	0.000	
22	 NAL	-40.843	-11.998	12.448	N.2	1	RJN2116	0.000	
23	 NAU	-39.120	-10.463	12.924	N.pl3	1	RJN2116	0.000	
24	 OAA	-39.861	-11.027	3.749	O.co2	1	RJN2116	0.000	
25	 OAT	-38.461	-10.172	15.072	O.2	1	RJN2116	0.000	
26	 OAV	-37.928	-12.193	4.160	O.3	1	RJN2116	0.000	
27	 CBA	-33.957	-10.694	1.756	C.2	1	RJN2116	0.000	
28	 CBB	-33.998	-11.938	2.393	C.2	1	RJN2116	0.000	
29	 CBC	-35.226	-12.524	2.723	C.2	1	RJN2116	0.000	
@<TRIPOS>BOND
1 2 3 1
2 3 4 2
3 4 5 1
4 5 6 2
5 6 7 1
6 3 8 1
7 7 8 2
8 6 9 1
9 10 11 2
10 11 12 1
11 12 13 2
12 13 14 1
13 10 15 1
14 14 15 2
15 11 16 1
16 17 18 1
17 18 19 2
18 19 20 1
19 1 21 1
20 2 21 1
21 9 22 2
22 10 22 1
23 9 23 1
24 16 23 1
25 1 24 2
26 16 25 2
27 1 26 1
28 17 26 1
29 20 27 2
30 27 28 1
31 18 29 1
32 28 29 2
@<TRIPOS>SUBSTRUCTURE
1	RJN2116	1	GROUP	1 A	RJN
