@<TRIPOS>MOLECULE
*****
 48 51 0 0 0
SMALL
GASTEIGER

@<TRIPOS>ATOM
      1 O           0.2966   -0.4377   -0.6697 O.2     1  UNL111     -0.2265
      2 C           0.4027   -0.8020   -1.8355 C.2     1  UNL111      0.4008
      3 O          -0.4643   -0.5021   -2.8337 O.3     1  UNL111     -0.4456
      4 N           1.3942   -1.6140   -2.3004 N.am    1  UNL111     -0.2770
      5 C          -1.7316    0.0483   -2.4243 C.3     1  UNL111      0.1191
      6 C           2.3976   -2.1698   -1.4206 C.3     1  UNL111      0.0400
      7 C          -1.9216    1.4824   -2.8623 C.ar    1  UNL111     -0.0103
      8 C           3.2988   -3.1605   -2.1206 C.ar    1  UNL111     -0.0302
      9 C          -2.9178    1.8238   -3.7910 C.ar    1  UNL111     -0.0554
     10 C          -1.1610    2.5094   -2.2861 C.ar    1  UNL111     -0.0554
     11 C           4.4691   -2.7254   -2.7543 C.ar    1  UNL111     -0.0563
     12 C           2.9921   -4.5304   -2.1530 C.ar    1  UNL111     -0.0563
     13 C          -3.1449    3.1602   -4.1328 C.ar    1  UNL111     -0.0614
     14 C          -1.3872    3.8409   -2.6300 C.ar    1  UNL111     -0.0614
     15 C           5.3017   -3.6328   -3.4217 C.ar    1  UNL111     -0.0464
     16 C           3.8269   -5.4420   -2.8199 C.ar    1  UNL111     -0.0464
     17 C          -2.3840    4.1703   -3.5545 C.ar    1  UNL111     -0.0617
     18 C           4.9730   -4.9950   -3.4841 C.ar    1  UNL111      0.0698
     19 C           5.8925   -5.9724   -4.1461 C.2     1  UNL111      0.3676
     20 N           6.6917   -5.4716   -5.1552 N.am    1  UNL111      0.0363
     21 N           5.9563   -7.2095   -3.7628 N.2     1  UNL111     -0.0408
     22 C           7.6851   -6.1934   -5.7644 C.2     1  UNL111      0.3782
     23 C           7.0238   -7.9945   -4.2500 C.2     1  UNL111      0.1719
     24 O           8.2995   -5.7712   -6.7335 O.2     1  UNL111     -0.2376
     25 C           7.9698   -7.4921   -5.1478 C.2     1  UNL111      0.1120
     26 C           7.2561   -9.2483   -3.6816 C.3     1  UNL111      0.0329
     27 C           9.1851   -8.1429   -5.3763 C.2     1  UNL111     -0.0436
     28 C           8.4742   -9.9069   -3.8929 C.2     1  UNL111     -0.0761
     29 C           9.4528   -9.3339   -4.7061 C.2     1  UNL111     -0.0643
     30 H           1.4278   -1.8276   -3.2609 H       1  UNL111      0.1523
     31 H          -1.7925    0.0069   -1.3568 H       1  UNL111      0.0749
     32 H          -2.4990   -0.5333   -2.8910 H       1  UNL111      0.0749
     33 H           1.9060   -2.6666   -0.6104 H       1  UNL111      0.0513
     34 H           3.0092   -1.3626   -1.0752 H       1  UNL111      0.0513
     35 H          -3.4877    1.0812   -4.2254 H       1  UNL111      0.0621
     36 H          -0.4259    2.2770   -1.6001 H       1  UNL111      0.0621
     37 H           4.7211   -1.7249   -2.7294 H       1  UNL111      0.0621
     38 H           2.1410   -4.8723   -1.6800 H       1  UNL111      0.0621
     39 H          -3.8801    3.3980   -4.8169 H       1  UNL111      0.0618
     40 H          -0.8172    4.5866   -2.2010 H       1  UNL111      0.0618
     41 H           6.1665   -3.2954   -3.8725 H       1  UNL111      0.0626
     42 H           3.5930   -6.4471   -2.8196 H       1  UNL111      0.0626
     43 H          -2.5536    5.1568   -3.8058 H       1  UNL111      0.0618
     44 H           6.5264   -9.6924   -3.1026 H       1  UNL111      0.0393
     45 H           8.0756   -8.7153   -4.0123 H       1  UNL111      0.0393
     46 H           9.8752   -7.7461   -6.0331 H       1  UNL111      0.0627
     47 H           8.6487  -10.8201   -3.4451 H       1  UNL111      0.0576
     48 H          10.3720   -9.7913   -4.8105 H       1  UNL111      0.0615
@<TRIPOS>BOND
     1     1     2    2
     2     2     4   am
     3     4     6    1
     4     6     8    1
     5     8    11   ar
     6    11    15   ar
     7    15    18   ar
     8    18    16   ar
     9    16    12   ar
    10     8    12   ar
    11    18    19    1
    12    19    21    1
    13    21    23    2
    14    23    26    1
    15    26    28    1
    16    28    29    2
    17    29    27    1
    18    27    25    2
    19    23    25    1
    20    25    22    1
    21    22    24    2
    22    22    20    1
    23    19    20    2
    24     2     3    1
    25     3     5    1
    26     5     7    1
    27     7     9   ar
    28     9    13   ar
    29    13    17   ar
    30    17    14   ar
    31    14    10   ar
    32     7    10   ar
    33     4    30    1
    34     5    31    1
    35     5    32    1
    36     6    33    1
    37     6    34    1
    38     9    35    1
    39    10    36    1
    40    11    37    1
    41    12    38    1
    42    13    39    1
    43    14    40    1
    44    15    41    1
    45    16    42    1
    46    17    43    1
    47    26    44    1
    48    26    45    1
    49    27    46    1
    50    28    47    1
    51    29    48    1
