@<TRIPOS>MOLECULE
RJN.pdb
 48 51 0 0 0
SMALL
GASTEIGER

@<TRIPOS>ATOM
      1 OAA       -38.7000  -11.2120    4.1040 O.2   2117  RJN211721172117   -0.2265
      2 CAB       -37.8020  -11.3830    4.9350 C.2   2117  RJN211721172117    0.4008
      3 OAV       -36.5890  -12.0030    4.6290 O.3   2117  RJN211721172117   -0.4456
      4 NAC       -37.9910  -10.9420    6.1820 N.am  2117  RJN211721172117   -0.2770
      5 CAW       -36.3300  -12.4820    3.2610 C.3   2117  RJN211721172117    0.1191
      6 CAD       -39.2280  -10.2800    6.6840 C.3   2117  RJN211721172117    0.0400
      7 CAX       -35.1080  -11.9590    2.8090 C.ar  2117  RJN211721172117   -0.0103
      8 CAE       -39.2070  -10.4800    8.0820 C.ar  2117  RJN211721172117   -0.0302
      9 CAY       -33.9100  -12.6820    2.8930 C.ar  2117  RJN211721172117   -0.0554
     10 CBC       -35.0790  -10.6850    2.2250 C.ar  2117  RJN211721172117   -0.0554
     11 CAF       -38.5120   -9.6170    8.9480 C.ar  2117  RJN211721172117   -0.0563
     12 CAJ       -39.8330  -11.6010    8.6230 C.ar  2117  RJN211721172117   -0.0563
     13 CAZ       -32.7150  -12.1270    2.4240 C.ar  2117  RJN211721172117   -0.0614
     14 CBB       -33.8870  -10.1310    1.7580 C.ar  2117  RJN211721172117   -0.0614
     15 CAG       -38.4790   -9.8660   10.3180 C.ar  2117  RJN211721172117   -0.0464
     16 CAI       -39.8070  -11.8440    9.9950 C.ar  2117  RJN211721172117   -0.0464
     17 CBA       -32.7000  -10.8510    1.8600 C.ar  2117  RJN211721172117   -0.0617
     18 CAH       -39.1270  -10.9920   10.8700 C.ar  2117  RJN211721172117    0.0698
     19 CAK       -39.1360  -11.2970   12.2540 C.2   2117  RJN211721172117    0.3673
     20 NAU       -38.3440  -10.6080   13.2230 N.am  2117  RJN211721172117    0.0323
     21 NAL       -39.9350  -12.3020   12.6710 N.2   2117  RJN211721172117   -0.0408
     22 CAS       -38.3910  -10.9610   14.5720 C.2   2117  RJN211721172117    0.3582
     23 CAM       -39.9950  -12.6510   13.9750 C.2   2117  RJN211721172117    0.1717
     24 OAT       -37.7090  -10.3710   15.3840 O.2   2117  RJN211721172117   -0.2424
     25 CAN       -39.2200  -11.9840   14.9560 C.3   2117  RJN211721172117    0.1465
     26 CAR       -40.8710  -13.6940   14.3460 C.2   2117  RJN211721172117   -0.0140
     27 CAO       -39.3270  -12.3560   16.2810 C.2   2117  RJN211721172117   -0.0620
     28 CAQ       -40.9770  -14.0720   15.6870 C.2   2117  RJN211721172117   -0.0582
     29 CAP       -40.1990  -13.3990   16.6410 C.2   2117  RJN211721172117   -0.0643
     30 H         -37.2526  -11.0645    6.8215 H     2117  RJN211721172117    0.1523
     31 H         -36.2835  -13.5510    3.2596 H     2117  RJN211721172117    0.0749
     32 H         -37.1187  -12.1601    2.6135 H     2117  RJN211721172117    0.0749
     33 H         -39.2158   -9.2353    6.4532 H     2117  RJN211721172117    0.0513
     34 H         -40.1110  -10.6826    6.2333 H     2117  RJN211721172117    0.0513
     35 H         -33.9098  -13.6290    3.3032 H     2117  RJN211721172117    0.0621
     36 H         -35.9555  -10.1471    2.1390 H     2117  RJN211721172117    0.0621
     37 H         -38.0227   -8.7928    8.5655 H     2117  RJN211721172117    0.0621
     38 H         -40.3229  -12.2608    7.9988 H     2117  RJN211721172117    0.0621
     39 H         -31.8375  -12.6655    2.4957 H     2117  RJN211721172117    0.0618
     40 H         -33.8851   -9.1886    1.3374 H     2117  RJN211721172117    0.0618
     41 H         -37.9724   -9.2165   10.9398 H     2117  RJN211721172117    0.0626
     42 H         -40.2993  -12.6688   10.3723 H     2117  RJN211721172117    0.0626
     43 H         -31.8146  -10.4436    1.5206 H     2117  RJN211721172117    0.0618
     44 H         -38.5002  -11.4734   14.4211 H     2117  RJN211721172117    0.0549
     45 H         -41.4326  -14.1769   13.6274 H     2117  RJN211721172117    0.0658
     46 H         -38.7706  -11.8718   17.0028 H     2117  RJN211721172117    0.0585
     47 H         -41.6154  -14.8317   15.9703 H     2117  RJN211721172117    0.0619
     48 H         -40.2684  -13.6765   17.6326 H     2117  RJN211721172117    0.0615
@<TRIPOS>BOND
     1     2     4   am
     2     2     1    2
     3     2     3    1
     4     6     8    1
     5     6     4    1
     6     8    11   ar
     7     8    12   ar
     8    11    15   ar
     9    15    18   ar
    10    18    16   ar
    11    18    19    1
    12    16    12   ar
    13    19    21    1
    14    19    20    2
    15    23    25    1
    16    23    26    1
    17    23    21    2
    18    25    27    1
    19    25    22    1
    20    27    29    2
    21    29    28    1
    22    28    26    2
    23    22    20    1
    24    22    24    2
    25     5     7    1
    26     5     3    1
    27     7     9   ar
    28     7    10   ar
    29     9    13   ar
    30    13    17   ar
    31    17    14   ar
    32    14    10   ar
    33     4    30    1
    34     5    31    1
    35     5    32    1
    36     6    33    1
    37     6    34    1
    38     9    35    1
    39    10    36    1
    40    11    37    1
    41    12    38    1
    42    13    39    1
    43    14    40    1
    44    15    41    1
    45    16    42    1
    46    17    43    1
    47    25    44    1
    48    26    45    1
    49    27    46    1
    50    28    47    1
    51    29    48    1
