@<TRIPOS>MOLECULE
FR1.pdb
 11 10 0 0 0
SMALL
GASTEIGER

@<TRIPOS>ATOM
      1  C4        59.4600   51.2900   37.5300 C.3   164  JZ4164     -0.0655
      2  C13       56.9600   50.8200   37.1300 C.3   164  JZ4164     -0.0655
      3  C14       58.1600   50.7400   38.1000 C.3   164  JZ4164     -0.0588
      4  H1        60.1310   51.5740   38.3540 H     164  JZ4164      0.0230
      5  H2        59.9440   50.5200   36.9120 H     164  JZ4164      0.0230
      6  H3        59.2440   52.1740   36.9120 H     164  JZ4164      0.0230
      7  H4        56.0260   50.8820   37.7070 H     164  JZ4164      0.0230
      8  H5        57.0600   51.7130   36.4960 H     164  JZ4164      0.0230
      9  H6        56.9400   49.9210   36.4960 H     164  JZ4164      0.0230
     10  H7        58.3190   49.6850   38.3660 H     164  JZ4164      0.0260
     11  H8        57.9060   51.3650   38.9690 H     164  JZ4164      0.0260
@<TRIPOS>BOND
     1     1     3    1
     2     1     4    1
     3     1     5    1
     4     1     6    1
     5     2     3    1
     6     2     7    1
     7     2     8    1
     8     2     9    1
     9     3    10    1
    10     3    11    1
