@<TRIPOS>MOLECULE
DB08865.pdb
 52 55 0 0 0
SMALL
GASTEIGER

@<TRIPOS>ATOM
      1  H          0.6630   -0.1690    0.5560 H       1  UNL1        0.0782
      2  C          1.3990   -0.1690   -0.2450 C.3     1  UNL1        0.1253
      3  C          0.6910   -0.1510   -1.6120 C.3     1  UNL1       -0.0234
      4  O          2.2210   -1.3480   -0.1430 O.3     1  UNL1       -0.4810
      5  C          1.8980   -2.2850    0.8080 C.ar    1  UNL1        0.1613
      6  C          2.9750   -3.0130    1.3370 C.ar    1  UNL1       -0.0072
      7  C          2.7480   -3.9790    2.3270 C.ar    1  UNL1        0.0068
      8  C          1.4330   -4.1450    2.7550 C.ar    1  UNL1        0.0377
      9  N          0.3680   -3.5110    2.2220 N.ar    1  UNL1       -0.2364
     10  C          0.6080   -2.6360    1.2290 C.ar    1  UNL1        0.1583
     11  N         -0.5500   -2.1660    0.6160 N.pl3   1  UNL1       -0.3402
     12  C          3.7880   -4.8430    2.8430 C.ar    1  UNL1        0.0211
     13  C          3.7970   -5.4010    4.1150 C.ar    1  UNL1        0.0336
     14  N          4.8630   -6.2560    4.1610 N.ar    1  UNL1       -0.2677
     15  N          5.5580   -6.2740    3.0100 N.ar    1  UNL1       -0.1788
     16  C          4.9020   -5.4300    2.2160 C.ar    1  UNL1        0.0571
     17  C          5.2340   -7.1180    5.2860 C.3     1  UNL1        0.0550
     18  C          6.6420   -6.8270    5.8080 C.3     1  UNL1       -0.0179
     19  C          7.7250   -7.4240    4.9100 C.3     1  UNL1       -0.0022
     20  N          7.5270   -8.8540    4.6690 N.3     1  UNL1       -0.3158
     21  C          6.2070   -9.1500    4.1110 C.3     1  UNL1       -0.0022
     22  C          5.0720   -8.6110    4.9830 C.3     1  UNL1       -0.0179
     23  C          2.1750    1.1490   -0.1290 C.ar    1  UNL1        0.0318
     24  C          1.5160    2.2840    0.4140 C.ar    1  UNL1        0.0492
     25 CL         -0.0150    2.1880    1.2250 Cl      1  UNL1       -0.0831
     26  C          2.0560    3.5710    0.3070 C.ar    1  UNL1       -0.0402
     27  C          3.2890    3.7590   -0.3010 C.ar    1  UNL1       -0.0236
     28  C          3.9860    2.6520   -0.7720 C.ar    1  UNL1        0.1421
     29  F          5.1890    2.8610   -1.3310 F       1  UNL1       -0.2039
     30  C          3.4490    1.3590   -0.6990 C.ar    1  UNL1        0.0841
     31 CL          4.4090    0.0830   -1.3670 Cl      1  UNL1       -0.0801
     32  H          1.4010   -0.3150   -2.4310 H       1  UNL1        0.0269
     33  H          0.1770    0.8010   -1.7930 H       1  UNL1        0.0269
     34  H         -0.0570   -0.9400   -1.7000 H       1  UNL1        0.0269
     35  H          3.9790   -2.8200    0.9700 H       1  UNL1        0.0662
     36  H          1.1780   -4.8530    3.5380 H       1  UNL1        0.0836
     37  H         -1.3210   -2.6500    1.0670 H       1  UNL1        0.1438
     38  H         -0.5150   -2.3850   -0.3710 H       1  UNL1        0.1438
     39  H          3.1380   -5.2790    4.9620 H       1  UNL1        0.0832
     40  H          5.2540   -5.3090    1.1950 H       1  UNL1        0.0854
     41  H          4.5210   -6.8630    6.0850 H       1  UNL1        0.0545
     42  H          6.7420   -7.2610    6.8110 H       1  UNL1        0.0298
     43  H          6.7990   -5.7470    5.9160 H       1  UNL1        0.0298
     44  H          8.6980   -7.2890    5.3970 H       1  UNL1        0.0425
     45  H          7.8000   -6.8830    3.9610 H       1  UNL1        0.0425
     46  H          7.6570   -9.3690    5.5370 H       1  UNL1        0.1219
     47  H          6.1050  -10.2390    4.0330 H       1  UNL1        0.0425
     48  H          6.1280   -8.7750    3.0850 H       1  UNL1        0.0425
     49  H          5.0760   -9.1640    5.9340 H       1  UNL1        0.0298
     50  H          4.1060   -8.8160    4.5090 H       1  UNL1        0.0298
     51  H          1.5090    4.4310    0.6840 H       1  UNL1        0.0633
     52  H          3.7100    4.7510   -0.4130 H       1  UNL1        0.0647
@<TRIPOS>BOND
     1     1     2    1
     2     2     4    1
     3     2    23    1
     4     2     3    1
     5     3    32    1
     6     3    33    1
     7     3    34    1
     8     4     5    1
     9     5     6   ar
    10     5    10   ar
    11     6     7   ar
    12     6    35    1
    13     7     8   ar
    14     7    12    1
    15     8     9   ar
    16     8    36    1
    17     9    10   ar
    18    10    11    1
    19    11    37    1
    20    11    38    1
    21    12    13   ar
    22    12    16   ar
    23    13    14   ar
    24    13    39    1
    25    14    15   ar
    26    14    17    1
    27    15    16   ar
    28    16    40    1
    29    17    18    1
    30    17    22    1
    31    17    41    1
    32    18    19    1
    33    18    42    1
    34    18    43    1
    35    19    20    1
    36    19    44    1
    37    19    45    1
    38    20    21    1
    39    20    46    1
    40    21    22    1
    41    21    47    1
    42    21    48    1
    43    22    49    1
    44    22    50    1
    45    23    24   ar
    46    23    30   ar
    47    24    25    1
    48    24    26   ar
    49    26    27   ar
    50    26    51    1
    51    27    28   ar
    52    27    52    1
    53    28    29    1
    54    28    30   ar
    55    30    31    1
