@<TRIPOS>MOLECULE
PhOH
 13 13 0 0 0
SMALL
GASTEIGER

@<TRIPOS>ATOM
      1  C7        21.5530  -27.2140   -4.1120 C.ar  1  PhOH     -0.0615
      2  C8        22.0680  -26.7470   -5.3310 C.ar  1  PhOH     -0.0583
      3  C9        22.6710  -25.5120   -5.4480 C.ar  1  PhOH     -0.0202
      4  C10       22.7690  -24.7300   -4.2950 C.ar  1  PhOH      0.1169
      5  C11       21.6930  -26.4590   -2.9540 C.ar  1  PhOH     -0.0583
      6  C12       22.2940  -25.1870   -3.0750 C.ar  1  PhOH     -0.0202
      7  OAB       23.4120  -23.5360   -4.3420 O.3   1  PhOH     -0.5068
      8  H1        21.0350  -28.1840   -4.0730 H     1  PhOH      0.0618
      9  H2        21.9880  -27.3870   -6.2220 H     1  PhOH      0.0619
     10  H3        23.0600  -25.1560   -6.4130 H     1  PhOH      0.0654
     11  H4        21.3490  -26.8380   -1.9800 H     1  PhOH      0.0619
     12  H5        22.3870  -24.5470   -2.1850 H     1  PhOH      0.0654
     13  H6        23.4830  -22.9800   -3.5260 H     1  PhOH      0.2921
@<TRIPOS>BOND
     1     1     2   ar
     2     1     5   ar
     3     1     8    1
     4     2     3   ar
     5     2     9    1
     6     3     4   ar
     7     3    10    1
     8     4     6   ar
     9     4     7    1
    10     5     6   ar
    11     5    11    1
    12     6    12    1
    13     7    13    1
